
* CREATED USING FILTERLAB ON 11/12/2022 AT 1:27:33
* |------------------------------------------------------------|
* |This model is being supplied as an aid to circuit designs.  |
* |While it reflects reasonable close similarity to the actual |
* |filter in terms of performance, it is not suggested as a    |
* |replacement for breadboarding. Simulation should be used as |
* |a forerunner or a supplement to traditional lab testing.    |
* |Neither this model nor any part may be copied without the   |
* |express written consent of Microchip Technology, Inc.       |
* |------------------------------------------------------------|
*
* 3RD ORDER CHEBYCHEV FILTER
* GAIN EQUALS 10
* CONNECTIONS:		INPUT
*			 |    OUTPUT
*			 |    |    POSITIVE POWER SUPPLY
*			 |    |    |    NEGATIVE POWER SUPPLY
*			 |    |    |    |
*			 |    |    |    |
*			 1    2    3    4
.SUBCKT FilterLab1	 10   30   3    4


*************** Stage 1 ***************
R98	3	5	10000
R99	4	5	10000
R11	10	11	5230.000
R12	11	20	52300.000
C11	11	20	0.0000000039
X11	5	11	3	4	20	MCP6xxx

*************** Stage 2 ***************
R21	20	21	15800.000
R22	21	30	15800.000
R23	21	22	15000.000
C21	22	30	0.00000000047
C22	21	0	0.000000039
X21	5	22	3	4	30	MCP6xxx

.ENDS

*Microchip Op Amp models are located on the Microchip website (www.microchip.com).
*See the User's Guide for general guidelines to selecting an Op Amp.
.SUBCKT MCP6xxx 1 2 3 4 5
*               | | | | |
*               | | | | Output
*               | | | Negative Power Supply
*               | | Positive Power Supply
*               | Inverting Input
*               Non-inverting Input
R1 1 0 1T
R2 2 0 1T
R3 3 0 1T
R4 4 0 1T
E5 5 0 POLY(1) 1 2   0 1T
R5 5 0 1T
.ENDS MCP6xxx