Version 4
SHEET 1 1184 680
WIRE 528 16 416 16
WIRE 720 16 592 16
WIRE -128 144 -368 144
WIRE -32 144 -48 144
WIRE 48 144 -32 144
WIRE 560 144 512 144
WIRE 288 160 112 160
WIRE 320 160 288 160
WIRE 416 160 416 16
WIRE 416 160 400 160
WIRE 432 160 416 160
WIRE 512 160 512 144
WIRE 720 160 720 16
WIRE 720 160 624 160
WIRE 48 176 16 176
WIRE 560 176 544 176
WIRE -368 208 -368 144
WIRE 512 208 512 160
WIRE -32 256 -32 144
WIRE 16 256 16 176
WIRE 176 256 16 256
WIRE 48 304 32 304
WIRE 176 304 176 256
WIRE 176 304 128 304
WIRE 192 304 176 304
WIRE 288 304 288 160
WIRE 288 304 272 304
WIRE 544 304 544 176
WIRE 592 304 544 304
WIRE 720 304 720 160
WIRE 720 304 672 304
WIRE 544 320 544 304
WIRE -368 384 -368 288
WIRE -32 384 -32 320
WIRE 32 384 32 304
FLAG -368 384 0
FLAG -496 288 0
FLAG -496 208 +3v3
FLAG 80 128 0
FLAG 80 192 +3v3
FLAG -32 384 0
FLAG 32 384 0
FLAG 544 400 0
FLAG 512 272 0
FLAG 592 128 0
FLAG 592 192 +3v3
SYMBOL voltage -368 192 R0
WINDOW 3 24 44 Left 2
WINDOW 123 24 180 Left 2
WINDOW 39 0 0 Left 0
SYMATTR Value SINE(0 100m 1k)
SYMATTR InstName V1
SYMBOL voltage -496 192 R0
WINDOW 123 0 0 Left 0
WINDOW 39 0 0 Left 0
SYMATTR InstName V2
SYMATTR Value 3.3
SYMBOL OpAmps\\OP191 80 224 M180
SYMATTR InstName U2
SYMBOL res -32 128 R90
WINDOW 0 0 56 VBottom 2
WINDOW 3 32 56 VTop 2
SYMATTR InstName R3
SYMATTR Value 12k
SYMBOL cap -48 256 R0
SYMATTR InstName C2
SYMATTR Value 10n
SYMBOL res 144 288 R90
WINDOW 0 0 56 VBottom 2
WINDOW 3 32 56 VTop 2
SYMATTR InstName R4
SYMATTR Value 2400
SYMBOL res 288 288 R90
WINDOW 0 0 56 VBottom 2
WINDOW 3 32 56 VTop 2
SYMATTR InstName R5
SYMATTR Value 5100
SYMBOL res 416 144 R90
WINDOW 0 0 56 VBottom 2
WINDOW 3 32 56 VTop 2
SYMATTR InstName R6
SYMATTR Value 3900
SYMBOL res 528 144 R90
WINDOW 0 0 56 VBottom 2
WINDOW 3 32 56 VTop 2
SYMATTR InstName R7
SYMATTR Value 8200
SYMBOL OpAmps\\OP191 592 224 M180
SYMATTR InstName U1
SYMBOL cap 496 208 R0
SYMATTR InstName C3
SYMATTR Value 10n
SYMBOL res 528 304 R0
SYMATTR InstName R8
SYMATTR Value 2400
SYMBOL res 688 288 R90
WINDOW 0 0 56 VBottom 2
WINDOW 3 32 56 VTop 2
SYMATTR InstName R9
SYMATTR Value 5100
SYMBOL cap 592 0 R90
WINDOW 0 0 32 VBottom 2
WINDOW 3 32 32 VTop 2
SYMATTR InstName C4
SYMATTR Value 11n
TEXT -528 408 Left 2 !.tran 10m
